# Este es el primer archivo que se ejecuta

# Entramos a la seccion General, esto quiere decir que las configuraciones
# definidas aqui seran aplicadas a todo contexto de la red.
[General]

# Establecemos el nombre de la red definido en el .ned
network = Network

# Establecemos el tiempo durante el cual la simulacion sera ejecutada.
sim-time-limit = 200s


#De aqui en adelante se van a definir parametros los cuales se acceden con
#la funcion par(nameOfPar).
#Ej: en el contexto de "NodeTx.gen", par(packetByteSize) devolvera 12500.


# El sig. par define cada cuanto se va a generar un nuevo mensaje desde generator.
# Se elige un numero de la distr exponencial con media 0.001 secs.
Network.nodeTx.gen.generationInterval = exponential(0.001)

# Tamaño de los paquetes en bytes
Network.nodeTx.gen.packetByteSize = 12500

# Tamaño del buffer de la cola en el nodeTx (generator->queue->nodeTx.out)
Network.nodeTx.traTx.bufferSize = 2000000

# Cantidad de paquetes a ignorar de la app, entre paquetes aceptados.
Network.nodeTx.traTx.ignore = 10

# Tamaño de los buffers
Network.queue.bufferSize = 200
Network.appQueue.bufferSize = 200
Network.nodeRx.traRx.bufferSize = 200
Network.nodeRx.traRx.delaySize = 5

# Porcentaje de error en algoritmo de control de flujo.
Network.nodeRx.traRx.errPercent = 0.05

# Sig archivo a leer es el .ned